6
h2o_dimer uhf/cc-pvtz sp-stable
O    -0.0016837260    1.5166460540    0.0000000000
O    -0.0016837260   -1.3937741060    0.0000000000
H    -0.0825779561    0.5561344400    0.0000000000
H    -0.9058180218    1.8306417236    0.0000000000
H     0.5076678104   -1.6848758656    0.7585612970
H     0.5076678104   -1.6848758656   -0.7585612970
